# generated using pymatgen
data_Ba2NdNbO6
_symmetry_space_group_name_H-M   C2/m
_cell_length_a   10.59050400
_cell_length_b   6.12826800
_cell_length_c   6.17854721
_cell_angle_alpha   90.00000000
_cell_angle_beta   125.23354985
_cell_angle_gamma   90.00000000
_symmetry_Int_Tables_number   12
_chemical_formula_structural   Ba2NdNbO6
_chemical_formula_sum   'Ba4 Nd2 Nb2 O12'
_cell_volume   327.53696317
_cell_formula_units_Z   2
loop_
 _symmetry_equiv_pos_site_id
 _symmetry_equiv_pos_as_xyz
  1  'x, y, z'
  2  '-x, -y, -z'
  3  '-x, y, -z'
  4  'x, -y, z'
  5  'x+1/2, y+1/2, z'
  6  '-x+1/2, -y+1/2, -z'
  7  '-x+1/2, y+1/2, -z'
  8  'x+1/2, -y+1/2, z'
loop_
 _atom_type_symbol
 _atom_type_oxidation_number
  Ba2+  2.0
  Nd3+  3.0
  Nb5+  5.0
  O2-  -2.0
loop_
 _atom_site_type_symbol
 _atom_site_label
 _atom_site_symmetry_multiplicity
 _atom_site_fract_x
 _atom_site_fract_y
 _atom_site_fract_z
 _atom_site_occupancy
  Ba2+  Ba0  4  0.24842400  0.00000000  0.74262700  1
  Nd3+  Nd1  2  0.00000000  0.00000000  0.00000000  1
  Nb5+  Nb2  2  0.00000000  0.50000000  0.50000000  1
  O2-  O3  8  0.03494950  0.26640650  0.30545900  1
  O2-  O4  4  0.23037700  0.50000000  0.79481400  1
