# generated using pymatgen
data_Ba4La2Ti3Nb2O18
_symmetry_space_group_name_H-M   R-3m
_cell_length_a   5.72696448
_cell_length_b   5.72696448
_cell_length_c   42.20106544
_cell_angle_alpha   90.00000000
_cell_angle_beta   90.00000000
_cell_angle_gamma   120.00000000
_symmetry_Int_Tables_number   166
_chemical_formula_structural   Ba4La2Ti3Nb2O18
_chemical_formula_sum   'Ba12 La6 Ti9 Nb6 O54'
_cell_volume   1198.67935559
_cell_formula_units_Z   3
loop_
 _symmetry_equiv_pos_site_id
 _symmetry_equiv_pos_as_xyz
  1  'x, y, z'
  2  '-x, -y, -z'
  3  '-y, x-y, z'
  4  'y, -x+y, -z'
  5  '-x+y, -x, z'
  6  'x-y, x, -z'
  7  'y, x, -z'
  8  '-y, -x, z'
  9  'x-y, -y, -z'
  10  '-x+y, y, z'
  11  '-x, -x+y, -z'
  12  'x, x-y, z'
  13  'x+2/3, y+1/3, z+1/3'
  14  '-x+2/3, -y+1/3, -z+1/3'
  15  '-y+2/3, x-y+1/3, z+1/3'
  16  'y+2/3, -x+y+1/3, -z+1/3'
  17  '-x+y+2/3, -x+1/3, z+1/3'
  18  'x-y+2/3, x+1/3, -z+1/3'
  19  'y+2/3, x+1/3, -z+1/3'
  20  '-y+2/3, -x+1/3, z+1/3'
  21  'x-y+2/3, -y+1/3, -z+1/3'
  22  '-x+y+2/3, y+1/3, z+1/3'
  23  '-x+2/3, -x+y+1/3, -z+1/3'
  24  'x+2/3, x-y+1/3, z+1/3'
  25  'x+1/3, y+2/3, z+2/3'
  26  '-x+1/3, -y+2/3, -z+2/3'
  27  '-y+1/3, x-y+2/3, z+2/3'
  28  'y+1/3, -x+y+2/3, -z+2/3'
  29  '-x+y+1/3, -x+2/3, z+2/3'
  30  'x-y+1/3, x+2/3, -z+2/3'
  31  'y+1/3, x+2/3, -z+2/3'
  32  '-y+1/3, -x+2/3, z+2/3'
  33  'x-y+1/3, -y+2/3, -z+2/3'
  34  '-x+y+1/3, y+2/3, z+2/3'
  35  '-x+1/3, -x+y+2/3, -z+2/3'
  36  'x+1/3, x-y+2/3, z+2/3'
loop_
 _atom_type_symbol
 _atom_type_oxidation_number
  Ba2+  2.0
  La3+  3.0
  Ti4+  4.0
  Nb5+  5.0
  O2-  -2.0
loop_
 _atom_site_type_symbol
 _atom_site_label
 _atom_site_symmetry_multiplicity
 _atom_site_fract_x
 _atom_site_fract_y
 _atom_site_fract_z
 _atom_site_occupancy
  Ba2+  Ba0  6  0.00000000  0.00000000  0.13974200  1
  Ba2+  Ba1  6  0.00000000  0.00000000  0.31186800  1
  La3+  La2  6  0.00000000  0.00000000  0.41466900  1
  Ti4+  Ti3  6  0.00000000  0.00000000  0.22161200  1
  Ti4+  Ti4  3  -0.00000000  -0.00000000  0.50000000  1
  Nb5+  Nb5  6  0.00000000  0.00000000  0.05393600  1
  O2-  O6  18  0.00431133  0.50215567  0.41955667  1
  O2-  O7  18  0.00677667  0.50338833  0.13862733  1
  O2-  O8  18  0.01051533  0.50525767  0.29944767  1
