# generated using pymatgen
data_BaNd2ZnO5
_symmetry_space_group_name_H-M   I4/mcm
_cell_length_a   6.82223200
_cell_length_b   6.82223200
_cell_length_c   11.70687600
_cell_angle_alpha   90.00000000
_cell_angle_beta   90.00000000
_cell_angle_gamma   90.00000000
_symmetry_Int_Tables_number   140
_chemical_formula_structural   BaNd2ZnO5
_chemical_formula_sum   'Ba4 Nd8 Zn4 O20'
_cell_volume   544.87136734
_cell_formula_units_Z   4
loop_
 _symmetry_equiv_pos_site_id
 _symmetry_equiv_pos_as_xyz
  1  'x, y, z'
  2  '-x, -y, -z'
  3  '-y, x, z'
  4  'y, -x, -z'
  5  '-x, -y, z'
  6  'x, y, -z'
  7  'y, -x, z'
  8  '-y, x, -z'
  9  'x, -y, -z+1/2'
  10  '-x, y, z+1/2'
  11  '-y, -x, -z+1/2'
  12  'y, x, z+1/2'
  13  '-x, y, -z+1/2'
  14  'x, -y, z+1/2'
  15  'y, x, -z+1/2'
  16  '-y, -x, z+1/2'
  17  'x+1/2, y+1/2, z+1/2'
  18  '-x+1/2, -y+1/2, -z+1/2'
  19  '-y+1/2, x+1/2, z+1/2'
  20  'y+1/2, -x+1/2, -z+1/2'
  21  '-x+1/2, -y+1/2, z+1/2'
  22  'x+1/2, y+1/2, -z+1/2'
  23  'y+1/2, -x+1/2, z+1/2'
  24  '-y+1/2, x+1/2, -z+1/2'
  25  'x+1/2, -y+1/2, -z'
  26  '-x+1/2, y+1/2, z'
  27  '-y+1/2, -x+1/2, -z'
  28  'y+1/2, x+1/2, z'
  29  '-x+1/2, y+1/2, -z'
  30  'x+1/2, -y+1/2, z'
  31  'y+1/2, x+1/2, -z'
  32  '-y+1/2, -x+1/2, z'
loop_
 _atom_type_symbol
 _atom_type_oxidation_number
  Ba2+  2.0
  Nd3+  3.0
  Zn2+  2.0
  O2-  -2.0
loop_
 _atom_site_type_symbol
 _atom_site_label
 _atom_site_symmetry_multiplicity
 _atom_site_fract_x
 _atom_site_fract_y
 _atom_site_fract_z
 _atom_site_occupancy
  Ba2+  Ba0  4  0.00000000  0.00000000  0.25000000  1
  Nd3+  Nd1  8  0.17407000  0.32593000  0.00000000  1
  Zn2+  Zn2  4  0.00000000  0.50000000  0.25000000  1
  O2-  O3  16  0.14455950  0.35544050  0.63035150  1
  O2-  O4  4  0.00000000  0.00000000  0.00000000  1
