# generated using pymatgen
data_BaSiO3
_symmetry_space_group_name_H-M   P2_12_12_1
_cell_length_a   4.63802200
_cell_length_b   5.69167400
_cell_length_c   12.70790900
_cell_angle_alpha   90.00000000
_cell_angle_beta   90.00000000
_cell_angle_gamma   90.00000000
_symmetry_Int_Tables_number   19
_chemical_formula_structural   BaSiO3
_chemical_formula_sum   'Ba4 Si4 O12'
_cell_volume   335.46476985
_cell_formula_units_Z   4
loop_
 _symmetry_equiv_pos_site_id
 _symmetry_equiv_pos_as_xyz
  1  'x, y, z'
  2  '-x+1/2, -y, z+1/2'
  3  'x+1/2, -y+1/2, -z'
  4  '-x, y+1/2, -z+1/2'
loop_
 _atom_type_symbol
 _atom_type_oxidation_number
  Ba2+  2.0
  Si4+  4.0
  O2-  -2.0
loop_
 _atom_site_type_symbol
 _atom_site_label
 _atom_site_symmetry_multiplicity
 _atom_site_fract_x
 _atom_site_fract_y
 _atom_site_fract_z
 _atom_site_occupancy
  Ba2+  Ba0  4  0.22941000  0.68440000  0.14209200  1
  Si4+  Si1  4  0.18107900  0.30347200  0.92703100  1
  O2-  O2  4  0.17084100  0.77682400  0.54255800  1
  O2-  O3  4  0.24022400  0.58017300  0.90635600  1
  O2-  O4  4  0.24951200  0.12164100  0.83252000  1
