# generated using pymatgen
data_BaZnP2O7
_symmetry_space_group_name_H-M   P-1
_cell_length_a   5.38061100
_cell_length_b   7.59433496
_cell_length_c   7.68512492
_cell_angle_alpha   102.73120258
_cell_angle_beta   93.11842385
_cell_angle_gamma   94.00232919
_symmetry_Int_Tables_number   2
_chemical_formula_structural   BaZnP2O7
_chemical_formula_sum   'Ba2 Zn2 P4 O14'
_cell_volume   304.77646340
_cell_formula_units_Z   2
loop_
 _symmetry_equiv_pos_site_id
 _symmetry_equiv_pos_as_xyz
  1  'x, y, z'
  2  '-x, -y, -z'
loop_
 _atom_type_symbol
 _atom_type_oxidation_number
  Ba2+  2.0
  Zn2+  2.0
  P5+  5.0
  O2-  -2.0
loop_
 _atom_site_type_symbol
 _atom_site_label
 _atom_site_symmetry_multiplicity
 _atom_site_fract_x
 _atom_site_fract_y
 _atom_site_fract_z
 _atom_site_occupancy
  Ba2+  Ba0  2  0.19983400  0.27974600  0.43449000  1
  Zn2+  Zn1  2  0.20223000  0.11039800  0.89392600  1
  P5+  P2  2  0.29527600  0.69441200  0.89613300  1
  P5+  P3  2  0.29830000  0.76759700  0.28182000  1
  O2-  O4  2  0.07221500  0.88457700  0.29599700  1
  O2-  O5  2  0.11523900  0.84887000  0.90264600  1
  O2-  O6  2  0.21127800  0.53363900  0.74770300  1
  O2-  O7  2  0.26849800  0.63238700  0.08421800  1
  O2-  O8  2  0.29546700  0.64994700  0.41839500  1
  O2-  O9  2  0.43002500  0.23157200  0.10593700  1
  O2-  O10  2  0.45281200  0.11536700  0.70319300  1
