# generated using pymatgen
data_Bi2Te2W3O16
_symmetry_space_group_name_H-M   C2/c
_cell_length_a   21.78921200
_cell_length_b   5.61718600
_cell_length_c   13.08626277
_cell_angle_alpha   90.00000000
_cell_angle_beta   124.16711253
_cell_angle_gamma   90.00000000
_symmetry_Int_Tables_number   15
_chemical_formula_structural   Bi2Te2W3O16
_chemical_formula_sum   'Bi8 Te8 W12 O64'
_cell_volume   1325.23560073
_cell_formula_units_Z   4
loop_
 _symmetry_equiv_pos_site_id
 _symmetry_equiv_pos_as_xyz
  1  'x, y, z'
  2  '-x, -y, -z'
  3  '-x, y, -z+1/2'
  4  'x, -y, z+1/2'
  5  'x+1/2, y+1/2, z'
  6  '-x+1/2, -y+1/2, -z'
  7  '-x+1/2, y+1/2, -z+1/2'
  8  'x+1/2, -y+1/2, z+1/2'
loop_
 _atom_type_symbol
 _atom_type_oxidation_number
  Bi3+  3.0
  Te4+  4.0
  W6+  6.0
  O2-  -2.0
loop_
 _atom_site_type_symbol
 _atom_site_label
 _atom_site_symmetry_multiplicity
 _atom_site_fract_x
 _atom_site_fract_y
 _atom_site_fract_z
 _atom_site_occupancy
  Bi3+  Bi0  8  0.22282350  0.33222050  0.34328700  1
  Te4+  Te1  8  0.09553050  0.80468850  0.15611200  1
  W6+  W2  8  0.12604650  0.36386550  0.96235700  1
  W6+  W3  4  0.00000000  0.12907800  0.25000000  1
  O2-  O4  8  0.04164650  0.15268850  0.87648900  1
  O2-  O5  8  0.04803550  0.34794850  0.37575200  1
  O2-  O6  8  0.08613400  0.08628800  0.24018200  1
  O2-  O7  8  0.12095350  0.38797550  0.79532600  1
  O2-  O8  8  0.12582900  0.44326500  0.09994000  1
  O2-  O9  8  0.19407350  0.12800650  0.02965500  1
  O2-  O10  8  0.19429950  0.89845350  0.22186900  1
  O2-  O11  8  0.19663250  0.38599150  0.49225900  1
