# generated using pymatgen
data_Bi2W2O9
_symmetry_space_group_name_H-M   Pna2_1
_cell_length_a   5.45266100
_cell_length_b   5.45315000
_cell_length_c   24.55871800
_cell_angle_alpha   90.00000000
_cell_angle_beta   90.00000000
_cell_angle_gamma   90.00000000
_symmetry_Int_Tables_number   33
_chemical_formula_structural   Bi2W2O9
_chemical_formula_sum   'Bi8 W8 O36'
_cell_volume   730.23330062
_cell_formula_units_Z   4
loop_
 _symmetry_equiv_pos_site_id
 _symmetry_equiv_pos_as_xyz
  1  'x, y, z'
  2  '-x, -y, z+1/2'
  3  '-x+1/2, y+1/2, z+1/2'
  4  'x+1/2, -y+1/2, z'
loop_
 _atom_type_symbol
 _atom_type_oxidation_number
  Bi3+  3.0
  W6+  6.0
  O2-  -2.0
loop_
 _atom_site_type_symbol
 _atom_site_label
 _atom_site_symmetry_multiplicity
 _atom_site_fract_x
 _atom_site_fract_y
 _atom_site_fract_z
 _atom_site_occupancy
  Bi3+  Bi0  4  0.14209300  0.97822600  0.39570400  1
  Bi3+  Bi1  4  0.14419300  0.47819800  0.28989500  1
  W6+  W2  4  0.18007200  0.99854800  0.17067700  1
  W6+  W3  4  0.19293600  0.49848200  0.51679300  1
  O2-  O4  4  0.00113300  0.21594100  0.50636700  1
  O2-  O5  4  0.00751000  0.28719300  0.68179400  1
  O2-  O6  4  0.07002500  0.29181500  0.02709500  1
  O2-  O7  4  0.08595500  0.79569100  0.66121000  1
  O2-  O8  4  0.08613000  0.25855300  0.84247600  1
  O2-  O9  4  0.08641200  0.75881800  0.84357600  1
  O2-  O10  4  0.21712900  0.06834700  0.24637900  1
  O2-  O11  4  0.22679400  0.56757200  0.44111700  1
  O2-  O12  4  0.24289200  0.94495700  0.09391700  1
