# generated using pymatgen
data_TaBiO4
_symmetry_space_group_name_H-M   P-1
_cell_length_a   5.57416565
_cell_length_b   7.69221717
_cell_length_c   7.77065761
_cell_angle_alpha   102.43895761
_cell_angle_beta   90.03753839
_cell_angle_gamma   93.36128748
_symmetry_Int_Tables_number   2
_chemical_formula_structural   TaBiO4
_chemical_formula_sum   'Ta4 Bi4 O16'
_cell_volume   324.77673488
_cell_formula_units_Z   4
loop_
 _symmetry_equiv_pos_site_id
 _symmetry_equiv_pos_as_xyz
  1  'x, y, z'
  2  '-x, -y, -z'
loop_
 _atom_type_symbol
 _atom_type_oxidation_number
  Ta5+  5.0
  Bi3+  3.0
  O2-  -2.0
loop_
 _atom_site_type_symbol
 _atom_site_label
 _atom_site_symmetry_multiplicity
 _atom_site_fract_x
 _atom_site_fract_y
 _atom_site_fract_z
 _atom_site_occupancy
  Ta5+  Ta0  2  0.25728145  0.17514460  0.80767184  1
  Ta5+  Ta1  2  0.27591493  0.15689738  0.30652184  1
  Bi3+  Bi2  2  0.21073980  0.66834742  0.88706608  1
  Bi3+  Bi3  2  0.26632644  0.61946991  0.38250898  1
  O2-  O4  2  0.04302189  0.34701478  0.35958622  1
  O2-  O5  2  0.05886612  0.39226209  0.82677739  1
  O2-  O6  2  0.06066454  0.95392871  0.28383162  1
  O2-  O7  2  0.19849613  0.17123319  0.05063189  1
  O2-  O8  2  0.34617597  0.18141634  0.55339909  1
  O2-  O9  2  0.42172303  0.95010223  0.77594106  1
  O2-  O10  2  0.45788488  0.66716034  0.13417266  1
  O2-  O11  2  0.48907025  0.60631473  0.67760649  1
