# generated using pymatgen
data_VBiO4
_symmetry_space_group_name_H-M   C2/c
_cell_length_a   7.33790200
_cell_length_b   11.74772600
_cell_length_c   5.17744778
_cell_angle_alpha   90.00000000
_cell_angle_beta   134.87700441
_cell_angle_gamma   90.00000000
_symmetry_Int_Tables_number   15
_chemical_formula_structural   VBiO4
_chemical_formula_sum   'V4 Bi4 O16'
_cell_volume   316.26908157
_cell_formula_units_Z   4
loop_
 _symmetry_equiv_pos_site_id
 _symmetry_equiv_pos_as_xyz
  1  'x, y, z'
  2  '-x, -y, -z'
  3  '-x, y, -z+1/2'
  4  'x, -y, z+1/2'
  5  'x+1/2, y+1/2, z'
  6  '-x+1/2, -y+1/2, -z'
  7  '-x+1/2, y+1/2, -z+1/2'
  8  'x+1/2, -y+1/2, z+1/2'
loop_
 _atom_type_symbol
 _atom_type_oxidation_number
  V5+  5.0
  Bi3+  3.0
  O2-  -2.0
loop_
 _atom_site_type_symbol
 _atom_site_label
 _atom_site_symmetry_multiplicity
 _atom_site_fract_x
 _atom_site_fract_y
 _atom_site_fract_z
 _atom_site_occupancy
  V5+  V0  4  0.00000000  0.12727400  0.75000000  1
  Bi3+  Bi1  4  0.00000000  0.37311800  0.25000000  1
  O2-  O2  8  0.14395350  0.20557750  0.64058700  1
  O2-  O3  8  0.24856100  0.04773200  0.13774000  1
