# generated using pymatgen
data_Ca3Mg(SiO4)2
_symmetry_space_group_name_H-M   P2_1/c
_cell_length_a   9.46807500
_cell_length_b   5.35133500
_cell_length_c   13.39481237
_cell_angle_alpha   90.00000000
_cell_angle_beta   92.35689943
_cell_angle_gamma   90.00000000
_symmetry_Int_Tables_number   14
_chemical_formula_structural   Ca3Mg(SiO4)2
_chemical_formula_sum   'Ca12 Mg4 Si8 O32'
_cell_volume   678.09870560
_cell_formula_units_Z   4
loop_
 _symmetry_equiv_pos_site_id
 _symmetry_equiv_pos_as_xyz
  1  'x, y, z'
  2  '-x, -y, -z'
  3  '-x, y+1/2, -z+1/2'
  4  'x, -y+1/2, z+1/2'
loop_
 _atom_type_symbol
 _atom_type_oxidation_number
  Ca2+  2.0
  Mg2+  2.0
  Si4+  4.0
  O2-  -2.0
loop_
 _atom_site_type_symbol
 _atom_site_label
 _atom_site_symmetry_multiplicity
 _atom_site_fract_x
 _atom_site_fract_y
 _atom_site_fract_z
 _atom_site_occupancy
  Ca2+  Ca0  4  0.07572500  0.23165700  0.91934600  1
  Ca2+  Ca1  4  0.22295400  0.67658300  0.75646200  1
  Ca2+  Ca2  4  0.42313100  0.24092400  0.59769700  1
  Mg2+  Mg3  4  0.25356800  0.74256600  0.00434000  1
  Si4+  Si4  4  0.09400100  0.22696600  0.64142100  1
  Si4+  Si5  4  0.39804500  0.22819900  0.86756000  1
  O2-  O6  4  0.05849400  0.70292700  0.92348300  1
  O2-  O7  4  0.06969000  0.18577500  0.25531600  1
  O2-  O8  4  0.17596000  0.04359800  0.08298200  1
  O2-  O9  4  0.18584400  0.52943400  0.12780700  1
  O2-  O10  4  0.30366400  0.08456500  0.43750300  1
  O2-  O11  4  0.32320700  0.55099300  0.37419500  1
  O2-  O12  4  0.40292800  0.13852100  0.25864100  1
  O2-  O13  4  0.44657500  0.71065300  0.57306500  1
