# generated using pymatgen
data_CaAl2(SiO4)2
_symmetry_space_group_name_H-M   P-1
_cell_length_a   8.26623700
_cell_length_b   13.03462850
_cell_length_c   13.06026394
_cell_angle_alpha   85.58390438
_cell_angle_beta   81.28143159
_cell_angle_gamma   89.14906588
_symmetry_Int_Tables_number   2
_chemical_formula_structural   CaAl2(SiO4)2
_chemical_formula_sum   'Ca8 Al16 Si16 O64'
_cell_volume   1386.81127296
_cell_formula_units_Z   8
loop_
 _symmetry_equiv_pos_site_id
 _symmetry_equiv_pos_as_xyz
  1  'x, y, z'
  2  '-x, -y, -z'
loop_
 _atom_type_symbol
 _atom_type_oxidation_number
  Ca2+  2.0
  Al3+  3.0
  Si4+  4.0
  O2-  -2.0
loop_
 _atom_site_type_symbol
 _atom_site_label
 _atom_site_symmetry_multiplicity
 _atom_site_fract_x
 _atom_site_fract_y
 _atom_site_fract_z
 _atom_site_occupancy
  Ca2+  Ca0  2  0.17573600  0.01991200  0.08864300  1
  Ca2+  Ca1  2  0.23541600  0.46047100  0.53954900  1
  Ca2+  Ca2  2  0.26842700  0.03761500  0.45927300  1
  Ca2+  Ca3  2  0.31644100  0.49987700  0.92090100  1
  Al3+  Al4  2  0.00455300  0.62181900  0.18291500  1
  Al3+  Al5  2  0.00674700  0.12842800  0.67321900  1
  Al3+  Al6  2  0.11139500  0.31449900  0.37895900  1
  Al3+  Al7  2  0.12652600  0.81535500  0.88200900  1
  Al3+  Al8  2  0.38658100  0.33370300  0.11242100  1
  Al3+  Al9  2  0.39805200  0.83951400  0.61098400  1
  Al3+  Al10  2  0.46546600  0.11296800  0.84889300  1
  Al3+  Al11  2  0.47603100  0.60938300  0.33153700  1
  Si4+  Si12  2  0.02027200  0.89716700  0.66430800  1
  Si4+  Si13  2  0.02287300  0.39338500  0.14834600  1
  Si4+  Si14  2  0.09216600  0.15908700  0.89592900  1
  Si4+  Si15  2  0.09724800  0.65560300  0.39559900  1
  Si4+  Si16  2  0.39189800  0.18571900  0.61412800  1
  Si4+  Si17  2  0.39639100  0.67803600  0.11013500  1
  Si4+  Si18  2  0.48552000  0.11637300  0.18814600  1
  Si4+  Si19  2  0.49616800  0.37820700  0.32730100  1
  O2-  O20  2  0.00170800  0.37530000  0.48635700  1
  O2-  O21  2  0.00441300  0.10442900  0.80876600  1
  O2-  O22  2  0.00726400  0.87494800  0.78995300  1
  O2-  O23  2  0.02362700  0.39357700  0.67799000  1
  O2-  O24  2  0.03135500  0.87616100  0.99452500  1
  O2-  O25  2  0.04500400  0.36315200  0.26701900  1
  O2-  O26  2  0.06338500  0.98958000  0.36421400  1
  O2-  O27  2  0.06589800  0.49220300  0.86170700  1
  O2-  O28  2  0.09039500  0.17913000  0.39077600  1
  O2-  O29  2  0.10259700  0.68156600  0.89579100  1
  O2-  O30  2  0.11791300  0.27990000  0.86384800  1
  O2-  O31  2  0.12672800  0.77657400  0.36386800  1
  O2-  O32  2  0.20530900  0.14933600  0.60458000  1
  O2-  O33  2  0.20781000  0.39692100  0.07821000  1
  O2-  O34  2  0.20938300  0.64140000  0.13695200  1
  O2-  O35  2  0.21055200  0.90450900  0.60581000  1
  O2-  O36  2  0.26328400  0.10134800  0.91937900  1
  O2-  O37  2  0.27236400  0.59492200  0.39499300  1
  O2-  O38  2  0.31098500  0.35534500  0.39073700  1
  O2-  O39  2  0.32648000  0.85484500  0.85337500  1
  O2-  O40  2  0.35883800  0.20266400  0.14800800  1
  O2-  O41  2  0.37399700  0.70991500  0.64619400  1
  O2-  O42  2  0.40684100  0.31229800  0.60260200  1
  O2-  O43  2  0.41609600  0.80217500  0.09680100  1
  O2-  O44  2  0.43073800  0.00827700  0.14367100  1
  O2-  O45  2  0.43854400  0.51331700  0.63425500  1
  O2-  O46  2  0.45346900  0.14347600  0.71962200  1
  O2-  O47  2  0.46444600  0.10237800  0.31710500  1
  O2-  O48  2  0.47703700  0.62273400  0.00245900  1
  O2-  O49  2  0.48886000  0.39461200  0.20178300  1
  O2-  O50  2  0.49245600  0.37406300  0.80422100  1
  O2-  O51  2  0.49825800  0.12723000  0.51643100  1
