# generated using pymatgen
data_CaMg(SiO3)2
_symmetry_space_group_name_H-M   C2/c
_cell_length_a   9.89170000
_cell_length_b   9.02990600
_cell_length_c   5.32982658
_cell_angle_alpha   90.00000000
_cell_angle_beta   106.40015687
_cell_angle_gamma   90.00000000
_symmetry_Int_Tables_number   15
_chemical_formula_structural   CaMg(SiO3)2
_chemical_formula_sum   'Ca4 Mg4 Si8 O24'
_cell_volume   456.69648092
_cell_formula_units_Z   4
loop_
 _symmetry_equiv_pos_site_id
 _symmetry_equiv_pos_as_xyz
  1  'x, y, z'
  2  '-x, -y, -z'
  3  '-x, y, -z+1/2'
  4  'x, -y, z+1/2'
  5  'x+1/2, y+1/2, z'
  6  '-x+1/2, -y+1/2, -z'
  7  '-x+1/2, y+1/2, -z+1/2'
  8  'x+1/2, -y+1/2, z+1/2'
loop_
 _atom_type_symbol
 _atom_type_oxidation_number
  Ca2+  2.0
  Mg2+  2.0
  Si4+  4.0
  O2-  -2.0
loop_
 _atom_site_type_symbol
 _atom_site_label
 _atom_site_symmetry_multiplicity
 _atom_site_fract_x
 _atom_site_fract_y
 _atom_site_fract_z
 _atom_site_occupancy
  Ca2+  Ca0  4  0.00000000  0.29891000  0.25000000  1
  Mg2+  Mg1  4  0.00000000  0.09242500  0.75000000  1
  Si4+  Si2  8  0.21376300  0.40684800  0.76729600  1
  O2-  O3  8  0.11551250  0.08780250  0.14283800  1
  O2-  O4  8  0.13739550  0.25070850  0.68013400  1
  O2-  O5  8  0.15012650  0.48492650  0.99789800  1
