# generated using pymatgen
data_CaSiO3
_symmetry_space_group_name_H-M   P2_1/c
_cell_length_a   7.08421361
_cell_length_b   7.32539354
_cell_length_c   15.43457976
_cell_angle_alpha   90.00000000
_cell_angle_beta   95.46384433
_cell_angle_gamma   90.00000000
_symmetry_Int_Tables_number   14
_chemical_formula_structural   CaSiO3
_chemical_formula_sum   'Ca12 Si12 O36'
_cell_volume   797.33292421
_cell_formula_units_Z   12
loop_
 _symmetry_equiv_pos_site_id
 _symmetry_equiv_pos_as_xyz
  1  'x, y, z'
  2  '-x, -y, -z'
  3  '-x, y+1/2, -z+1/2'
  4  'x, -y+1/2, z+1/2'
loop_
 _atom_type_symbol
 _atom_type_oxidation_number
  Ca2+  2.0
  Si4+  4.0
  O2-  -2.0
loop_
 _atom_site_type_symbol
 _atom_site_label
 _atom_site_symmetry_multiplicity
 _atom_site_fract_x
 _atom_site_fract_y
 _atom_site_fract_z
 _atom_site_occupancy
  Ca2+  Ca0  4  0.02921717  0.12436800  0.25260324  1
  Ca2+  Ca1  4  0.26053254  0.62689245  0.60004318  1
  Ca2+  Ca2  4  0.26352615  0.12145801  0.60219547  1
  Si4+  Si3  4  0.23074607  0.15862024  0.90770500  1
  Si4+  Si4  4  0.23087800  0.59240902  0.90753904  1
  Si4+  Si5  4  0.44306879  0.62361838  0.30152703  1
  O2-  O6  4  0.03507004  0.63910585  0.84940989  1
  O2-  O7  4  0.03608375  0.11275851  0.84807808  1
  O2-  O8  4  0.23404183  0.12248221  0.00935247  1
  O2-  O9  4  0.23721173  0.62798952  0.00984684  1
  O2-  O10  4  0.27300374  0.12415069  0.39029386  1
  O2-  O11  4  0.29942712  0.62352799  0.21447518  1
  O2-  O12  4  0.33046343  0.12499832  0.20137438  1
  O2-  O13  4  0.40607956  0.69679812  0.86416564  1
  O2-  O14  4  0.40709739  0.05543151  0.86422596  1
