# generated using pymatgen
data_CaSiO3
_symmetry_space_group_name_H-M   C2/c
_cell_length_a   6.90557200
_cell_length_b   11.98745000
_cell_length_c   19.79627122
_cell_angle_alpha   90.00000000
_cell_angle_beta   90.65719054
_cell_angle_gamma   90.00000000
_symmetry_Int_Tables_number   15
_chemical_formula_structural   CaSiO3
_chemical_formula_sum   'Ca24 Si24 O72'
_cell_volume   1638.63147443
_cell_formula_units_Z   24
loop_
 _symmetry_equiv_pos_site_id
 _symmetry_equiv_pos_as_xyz
  1  'x, y, z'
  2  '-x, -y, -z'
  3  '-x, y, -z+1/2'
  4  'x, -y, z+1/2'
  5  'x+1/2, y+1/2, z'
  6  '-x+1/2, -y+1/2, -z'
  7  '-x+1/2, y+1/2, -z+1/2'
  8  'x+1/2, -y+1/2, z+1/2'
loop_
 _atom_type_symbol
 _atom_type_oxidation_number
  Ca2+  2.0
  Si4+  4.0
  O2-  -2.0
loop_
 _atom_site_type_symbol
 _atom_site_label
 _atom_site_symmetry_multiplicity
 _atom_site_fract_x
 _atom_site_fract_y
 _atom_site_fract_z
 _atom_site_occupancy
  Ca2+  Ca0  8  0.01255550  0.33589450  0.50044000  1
  Ca2+  Ca1  4  0.00000000  0.00000000  0.00000000  1
  Ca2+  Ca2  4  0.00000000  0.00547600  0.25000000  1
  Ca2+  Ca3  4  0.00000000  0.32882600  0.25000000  1
  Ca2+  Ca4  4  0.00000000  0.34316600  0.75000000  1
  Si4+  Si5  8  0.09299300  0.17035600  0.62789200  1
  Si4+  Si6  8  0.20191700  0.20276800  0.12218200  1
  Si4+  Si7  8  0.20689450  0.46116250  0.12493700  1
  O2-  O8  8  0.05156300  0.05744500  0.87385400  1
  O2-  O9  8  0.05593900  0.28155900  0.87487500  1
  O2-  O10  8  0.10952550  0.33263950  0.12370400  1
  O2-  O11  8  0.14571650  0.14917650  0.19353000  1
  O2-  O12  8  0.15212900  0.15451300  0.04802800  1
  O2-  O13  8  0.15480700  0.48787100  0.69736700  1
  O2-  O14  8  0.15819850  0.48527350  0.55250900  1
  O2-  O15  8  0.19133200  0.17229900  0.70207400  1
  O2-  O16  8  0.20061900  0.17022300  0.55655900  1
