# generated using pymatgen
data_K2Mo2O7
_symmetry_space_group_name_H-M   P-1
_cell_length_a   6.95882315
_cell_length_b   7.23069291
_cell_length_c   7.53770237
_cell_angle_alpha   82.37925640
_cell_angle_beta   68.52305161
_cell_angle_gamma   85.80824978
_symmetry_Int_Tables_number   2
_chemical_formula_structural   K2Mo2O7
_chemical_formula_sum   'K4 Mo4 O14'
_cell_volume   349.69925541
_cell_formula_units_Z   2
loop_
 _symmetry_equiv_pos_site_id
 _symmetry_equiv_pos_as_xyz
  1  'x, y, z'
  2  '-x, -y, -z'
loop_
 _atom_type_symbol
 _atom_type_oxidation_number
  K+  1.0
  Mo6+  6.0
  O2-  -2.0
loop_
 _atom_site_type_symbol
 _atom_site_label
 _atom_site_symmetry_multiplicity
 _atom_site_fract_x
 _atom_site_fract_y
 _atom_site_fract_z
 _atom_site_occupancy
  K+  K0  2  0.23874351  0.61894098  0.43398120  1
  K+  K1  2  0.30462518  0.16102329  0.15726214  1
  Mo6+  Mo2  2  0.17354487  0.65038687  0.94483256  1
  Mo6+  Mo3  2  0.24651304  0.08824402  0.69238529  1
  O2-  O4  2  0.05849685  0.46957826  0.14184426  1
  O2-  O5  2  0.12047041  0.18572728  0.90748350  1
  O2-  O6  2  0.14860349  0.85037443  0.73192613  1
  O2-  O7  2  0.17557585  0.23018046  0.51919228  1
  O2-  O8  2  0.28834165  0.79287117  0.04447145  1
  O2-  O9  2  0.38152113  0.53866480  0.78749499  1
  O2-  O10  2  0.48924378  0.90873045  0.35076266  1
