# generated using pymatgen
data_LaPO4
_symmetry_space_group_name_H-M   P2_1/c
_cell_length_a   6.50496121
_cell_length_b   7.07797003
_cell_length_c   8.28287841
_cell_angle_alpha   90.00000000
_cell_angle_beta   126.49239616
_cell_angle_gamma   90.00000000
_symmetry_Int_Tables_number   14
_chemical_formula_structural   LaPO4
_chemical_formula_sum   'La4 P4 O16'
_cell_volume   306.58865634
_cell_formula_units_Z   4
loop_
 _symmetry_equiv_pos_site_id
 _symmetry_equiv_pos_as_xyz
  1  'x, y, z'
  2  '-x, -y, -z'
  3  '-x, y+1/2, -z+1/2'
  4  'x, -y+1/2, z+1/2'
loop_
 _atom_type_symbol
 _atom_type_oxidation_number
  La3+  3.0
  P5+  5.0
  O2-  -2.0
loop_
 _atom_site_type_symbol
 _atom_site_label
 _atom_site_symmetry_multiplicity
 _atom_site_fract_x
 _atom_site_fract_y
 _atom_site_fract_z
 _atom_site_occupancy
  La3+  La0  4  0.18164422  0.65954549  0.78228469  1
  P5+  P1  4  0.30786995  0.16347303  0.69545183  1
  O2-  O2  4  0.11751086  0.16941670  0.11953795  1
  O2-  O3  4  0.19602130  0.00716830  0.75045617  1
  O2-  O4  4  0.32906668  0.10730269  0.52643712  1
  O2-  O5  4  0.41869204  0.71472704  0.62869246  1
