# generated using pymatgen
data_Li2Mo4O13
_symmetry_space_group_name_H-M   P-1
_cell_length_a   8.40000600
_cell_length_b   8.73455832
_cell_length_c   11.73208186
_cell_angle_alpha   95.88310245
_cell_angle_beta   109.13960775
_cell_angle_gamma   95.83433877
_symmetry_Int_Tables_number   2
_chemical_formula_structural   Li2Mo4O13
_chemical_formula_sum   'Li6 Mo12 O39'
_cell_volume   800.49886749
_cell_formula_units_Z   3
loop_
 _symmetry_equiv_pos_site_id
 _symmetry_equiv_pos_as_xyz
  1  'x, y, z'
  2  '-x, -y, -z'
loop_
 _atom_type_symbol
 _atom_type_oxidation_number
  Li+  1.0
  Mo6+  6.0
  O2-  -2.0
loop_
 _atom_site_type_symbol
 _atom_site_label
 _atom_site_symmetry_multiplicity
 _atom_site_fract_x
 _atom_site_fract_y
 _atom_site_fract_z
 _atom_site_occupancy
  Li+  Li0  2  0.18613900  0.07890200  0.63471500  1
  Li+  Li1  2  0.22251400  0.87715800  0.37260300  1
  Li+  Li2  2  0.29777100  0.51655300  0.99792900  1
  Mo6+  Mo3  2  0.04190100  0.82388700  0.03580200  1
  Mo6+  Mo4  2  0.11449700  0.43756600  0.63599500  1
  Mo6+  Mo5  2  0.14338900  0.23053000  0.36676500  1
  Mo6+  Mo6  2  0.35438000  0.15817300  0.97065200  1
  Mo6+  Mo7  2  0.46856500  0.78982400  0.63971900  1
  Mo6+  Mo8  2  0.49433900  0.58098600  0.36495300  1
  O2-  O9  2  0.02020400  0.07815300  0.39873800  1
  O2-  O10  2  0.03243000  0.72831500  0.38669600  1
  O2-  O11  2  0.03630800  0.40847200  0.41662000  1
  O2-  O12  2  0.06758300  0.22426500  0.21104800  1
  O2-  O13  2  0.12246100  0.85633900  0.19448400  1
  O2-  O14  2  0.14309600  0.67252000  0.99793700  1
  O2-  O15  2  0.14955300  0.00492200  0.99382300  1
  O2-  O16  2  0.18446300  0.28977400  0.99886800  1
  O2-  O17  2  0.19651500  0.48375400  0.79198500  1
  O2-  O18  2  0.27556000  0.29803100  0.59161400  1
  O2-  O19  2  0.27856700  0.12637200  0.81202100  1
  O2-  O20  2  0.32371000  0.92113900  0.59546900  1
  O2-  O21  2  0.33156100  0.10775700  0.38688800  1
  O2-  O22  2  0.33156500  0.58695200  0.61649300  1
  O2-  O23  2  0.37557700  0.39847100  0.40075000  1
  O2-  O24  2  0.39728500  0.72923200  0.42298200  1
  O2-  O25  2  0.41129100  0.56822300  0.20951000  1
  O2-  O26  2  0.45344400  0.17688100  0.20164800  1
  O2-  O27  2  0.49689200  0.67317300  0.99460500  1
  O2-  O28  1  0.50000000  0.00000000  0.00000000  1
