# generated using pymatgen
data_Li2Mg2(WO4)3
_symmetry_space_group_name_H-M   Pc
_cell_length_a   10.66440300
_cell_length_b   5.21146400
_cell_length_c   20.79452082
_cell_angle_alpha   90.00000000
_cell_angle_beta   120.57909479
_cell_angle_gamma   90.00000000
_symmetry_Int_Tables_number   7
_chemical_formula_structural   Li2Mg2(WO4)3
_chemical_formula_sum   'Li8 Mg8 W12 O48'
_cell_volume   994.97435993
_cell_formula_units_Z   4
loop_
 _symmetry_equiv_pos_site_id
 _symmetry_equiv_pos_as_xyz
  1  'x, y, z'
  2  'x, -y, z+1/2'
loop_
 _atom_type_symbol
 _atom_type_oxidation_number
  Li+  1.0
  Mg2+  2.0
  W6+  6.0
  O2-  -2.0
loop_
 _atom_site_type_symbol
 _atom_site_label
 _atom_site_symmetry_multiplicity
 _atom_site_fract_x
 _atom_site_fract_y
 _atom_site_fract_z
 _atom_site_occupancy
  Li+  Li0  2  0.00005300  0.35576700  0.24911100  1
  Li+  Li1  2  0.45105200  0.49534500  0.20097300  1
  Li+  Li2  2  0.54702600  0.00335300  0.80079600  1
  Li+  Li3  2  0.54710300  0.00324200  0.47015500  1
  Mg2+  Mg4  2  0.00109200  0.14497200  0.75031200  1
  Mg2+  Mg5  2  0.10354500  0.49804500  0.52788900  1
  Mg2+  Mg6  2  0.45619900  0.49741000  0.52707400  1
  Mg2+  Mg7  2  0.89433100  0.00203600  0.47252600  1
  W6+  W8  2  0.18551700  0.03074400  0.15712200  1
  W6+  W9  2  0.19302200  0.03256800  0.44225200  1
  W6+  W10  2  0.36912100  0.47232300  0.84293800  1
  W6+  W11  2  0.62933600  0.02824100  0.15672100  1
  W6+  W12  2  0.80826800  0.46784900  0.55848700  1
  W6+  W13  2  0.81594400  0.47034200  0.84280300  1
  O2-  O14  2  0.06608800  0.16822000  0.57367800  1
  O2-  O15  2  0.07662500  0.16583700  0.96374300  1
  O2-  O16  2  0.08708900  0.10207600  0.20501500  1
  O2-  O17  2  0.09320500  0.10247800  0.34362700  1
  O2-  O18  2  0.17597200  0.38726300  0.79427700  1
  O2-  O19  2  0.23864200  0.31379000  0.12441000  1
  O2-  O20  2  0.25426200  0.31775400  0.50493700  1
  O2-  O21  2  0.33759000  0.17221800  0.71303100  1
  O2-  O22  2  0.34490900  0.17274600  0.96374800  1
  O2-  O23  2  0.40740800  0.32506500  0.28438600  1
  O2-  O24  2  0.41071000  0.33487000  0.42600400  1
  O2-  O25  2  0.48762500  0.19596700  0.87338400  1
  O2-  O26  2  0.51021600  0.31163600  0.12434800  1
  O2-  O27  2  0.58403300  0.17354800  0.57573300  1
  O2-  O28  2  0.59099800  0.17077800  0.71511300  1
  O2-  O29  2  0.65145200  0.33894800  0.03840900  1
  O2-  O30  2  0.66314600  0.32850800  0.28567200  1
  O2-  O31  2  0.75127300  0.18981900  0.49624800  1
  O2-  O32  2  0.76224100  0.18888300  0.87543200  1
  O2-  O33  2  0.82384600  0.10004000  0.20537900  1
  O2-  O34  2  0.90712600  0.38312900  0.65626300  1
  O2-  O35  2  0.91268800  0.38940600  0.79486900  1
  O2-  O36  2  0.92455900  0.33044600  0.03681500  1
  O2-  O37  2  0.93669000  0.33037400  0.42632100  1
