# generated using pymatgen
data_Li8Bi2(MoO4)7
_symmetry_space_group_name_H-M   I-4
_cell_length_a   21.50637800
_cell_length_b   21.50637800
_cell_length_c   5.38002600
_cell_angle_alpha   90.00000000
_cell_angle_beta   90.00000000
_cell_angle_gamma   90.00000000
_symmetry_Int_Tables_number   82
_chemical_formula_structural   Li8Bi2(MoO4)7
_chemical_formula_sum   'Li32 Bi8 Mo28 O112'
_cell_volume   2488.39273100
_cell_formula_units_Z   4
loop_
 _symmetry_equiv_pos_site_id
 _symmetry_equiv_pos_as_xyz
  1  'x, y, z'
  2  'y, -x, -z'
  3  '-x, -y, z'
  4  '-y, x, -z'
  5  'x+1/2, y+1/2, z+1/2'
  6  'y+1/2, -x+1/2, -z+1/2'
  7  '-x+1/2, -y+1/2, z+1/2'
  8  '-y+1/2, x+1/2, -z+1/2'
loop_
 _atom_type_symbol
 _atom_type_oxidation_number
  Li+  1.0
  Bi3+  3.0
  Mo6+  6.0
  O2-  -2.0
loop_
 _atom_site_type_symbol
 _atom_site_label
 _atom_site_symmetry_multiplicity
 _atom_site_fract_x
 _atom_site_fract_y
 _atom_site_fract_z
 _atom_site_occupancy
  Li+  Li0  8  0.00121300  0.24347550  0.49732425  1
  Li+  Li1  8  0.06898500  0.37576450  0.49509225  1
  Li+  Li2  8  0.06996800  0.62594050  0.50620325  1
  Li+  Li3  8  0.24777250  0.75211200  0.66764675  1
  Bi3+  Bi4  8  0.00026500  0.85914650  0.00127325  1
  Mo6+  Mo5  8  0.09502800  0.71591950  0.98583725  1
  Mo6+  Mo6  8  0.09567650  0.28359600  0.01403675  1
  Mo6+  Mo7  8  0.12985000  0.13104150  0.49955225  1
  Mo6+  Mo8  2  0.00000000  0.00000000  0.50000000  1
  Mo6+  Mo9  2  0.00000000  0.50000000  0.75000000  1
  O2-  O10  8  0.00131500  0.56831050  0.55802025  1
  O2-  O11  8  0.04576300  0.04704650  0.29201525  1
  O2-  O12  8  0.05367800  0.30307750  0.29081825  1
  O2-  O13  8  0.05416500  0.69961650  0.70399725  1
  O2-  O14  8  0.05470250  0.77730400  0.16978075  1
  O2-  O15  8  0.05475550  0.22248900  0.83051775  1
  O2-  O16  8  0.07043250  0.17196000  0.31965975  1
  O2-  O17  8  0.07244300  0.82980350  0.68368525  1
  O2-  O18  8  0.09280400  0.64597750  0.16665125  1
  O2-  O19  8  0.09415200  0.09427450  0.77519625  1
  O2-  O20  8  0.09669650  0.35243000  0.82824675  1
  O2-  O21  8  0.17420850  0.73356700  0.92569875  1
  O2-  O22  8  0.17431700  0.26486950  0.08035825  1
  O2-  O23  8  0.18596850  0.18668800  0.58074875  1
