# generated using pymatgen
data_LiAlSiO4
_symmetry_space_group_name_H-M   R3
_cell_length_a   13.43245874
_cell_length_b   13.43245874
_cell_length_c   8.96358904
_cell_angle_alpha   90.00000000
_cell_angle_beta   90.00000000
_cell_angle_gamma   120.00000000
_symmetry_Int_Tables_number   146
_chemical_formula_structural   LiAlSiO4
_chemical_formula_sum   'Li18 Al18 Si18 O72'
_cell_volume   1400.63056388
_cell_formula_units_Z   18
loop_
 _symmetry_equiv_pos_site_id
 _symmetry_equiv_pos_as_xyz
  1  'x, y, z'
  2  '-y, x-y, z'
  3  '-x+y, -x, z'
  4  'x+2/3, y+1/3, z+1/3'
  5  '-y+2/3, x-y+1/3, z+1/3'
  6  '-x+y+2/3, -x+1/3, z+1/3'
  7  'x+1/3, y+2/3, z+2/3'
  8  '-y+1/3, x-y+2/3, z+2/3'
  9  '-x+y+1/3, -x+2/3, z+2/3'
loop_
 _atom_type_symbol
 _atom_type_oxidation_number
  Li+  1.0
  Al3+  3.0
  Si4+  4.0
  O2-  -2.0
loop_
 _atom_site_type_symbol
 _atom_site_label
 _atom_site_symmetry_multiplicity
 _atom_site_fract_x
 _atom_site_fract_y
 _atom_site_fract_z
 _atom_site_occupancy
  Li+  Li0  9  0.01978033  0.81028029  0.75145949  1
  Li+  Li1  9  0.14386133  0.46026796  0.91596789  1
  Al3+  Al2  9  0.01192190  0.80309431  0.41774959  1
  Al3+  Al3  9  0.13634162  0.45223744  0.58458158  1
  Si4+  Si4  9  0.01601173  0.80303224  0.08340463  1
  Si4+  Si5  9  0.13547934  0.45743577  0.24994697  1
  O2-  O6  9  0.00231382  0.32513447  0.58413579  1
  O2-  O7  9  0.00373369  0.65908474  0.75009172  1
  O2-  O8  9  0.06732916  0.86648923  0.24337263  1
  O2-  O9  9  0.09521287  0.88019933  0.94483399  1
  O2-  O10  9  0.09828170  0.88273218  0.56678138  1
  O2-  O11  9  0.20000121  0.46562637  0.40777005  1
  O2-  O12  9  0.20968765  0.08657242  0.44218848  1
  O2-  O13  9  0.21596000  0.10329018  0.06509615  1
