# generated using pymatgen
data_LiAl5O8
_symmetry_space_group_name_H-M   P4_332
_cell_length_a   7.89825601
_cell_length_b   7.89825601
_cell_length_c   7.89825601
_cell_angle_alpha   90.00000000
_cell_angle_beta   90.00000000
_cell_angle_gamma   90.00000000
_symmetry_Int_Tables_number   212
_chemical_formula_structural   LiAl5O8
_chemical_formula_sum   'Li4 Al20 O32'
_cell_volume   492.71254483
_cell_formula_units_Z   4
loop_
 _symmetry_equiv_pos_site_id
 _symmetry_equiv_pos_as_xyz
  1  'x, y, z'
  2  '-y+3/4, x+1/4, z+3/4'
  3  '-x+1/2, -y, z+1/2'
  4  'y+3/4, -x+3/4, z+1/4'
  5  'x+1/2, -y+1/2, -z'
  6  '-y+1/4, -x+1/4, -z+1/4'
  7  '-x, y+1/2, -z+1/2'
  8  'y+1/4, x+3/4, -z+3/4'
  9  'z, x, y'
  10  'z+3/4, -y+3/4, x+1/4'
  11  'z+1/2, -x+1/2, -y'
  12  'z+1/4, y+3/4, -x+3/4'
  13  '-z, x+1/2, -y+1/2'
  14  '-z+1/4, -y+1/4, -x+1/4'
  15  '-z+1/2, -x, y+1/2'
  16  '-z+3/4, y+1/4, x+3/4'
  17  'y, z, x'
  18  'x+1/4, z+3/4, -y+3/4'
  19  '-y, z+1/2, -x+1/2'
  20  '-x+3/4, z+1/4, y+3/4'
  21  '-y+1/2, -z, x+1/2'
  22  '-x+1/4, -z+1/4, -y+1/4'
  23  'y+1/2, -z+1/2, -x'
  24  'x+3/4, -z+3/4, y+1/4'
loop_
 _atom_type_symbol
 _atom_type_oxidation_number
  Li+  1.0
  Al3+  3.0
  O2-  -2.0
loop_
 _atom_site_type_symbol
 _atom_site_label
 _atom_site_symmetry_multiplicity
 _atom_site_fract_x
 _atom_site_fract_y
 _atom_site_fract_z
 _atom_site_occupancy
  Li+  Li0  4  0.12500000  0.87500000  0.37500000  1
  Al3+  Al1  12  0.11884179  0.62500000  0.13115821  1
  Al3+  Al2  8  0.00218993  0.49781007  0.50218993  1
  O2-  O3  24  0.11493690  0.13257638  0.38476451  1
  O2-  O4  8  0.11462785  0.61462785  0.88537215  1
