# generated using pymatgen
data_LiZnPO4
_symmetry_space_group_name_H-M   Cc
_cell_length_a   17.51094000
_cell_length_b   9.88729400
_cell_length_c   16.41402029
_cell_angle_alpha   90.00000000
_cell_angle_beta   98.83756157
_cell_angle_gamma   90.00000000
_symmetry_Int_Tables_number   9
_chemical_formula_structural   LiZnPO4
_chemical_formula_sum   'Li32 Zn32 P32 O128'
_cell_volume   2808.11587828
_cell_formula_units_Z   32
loop_
 _symmetry_equiv_pos_site_id
 _symmetry_equiv_pos_as_xyz
  1  'x, y, z'
  2  'x, -y, z+1/2'
  3  'x+1/2, y+1/2, z'
  4  'x+1/2, -y+1/2, z+1/2'
loop_
 _atom_type_symbol
 _atom_type_oxidation_number
  Li+  1.0
  Zn2+  2.0
  P5+  5.0
  O2-  -2.0
loop_
 _atom_site_type_symbol
 _atom_site_label
 _atom_site_symmetry_multiplicity
 _atom_site_fract_x
 _atom_site_fract_y
 _atom_site_fract_z
 _atom_site_occupancy
  Li+  Li0  4  0.02397500  0.33664100  0.50256100  1
  Li+  Li1  4  0.07975550  0.16058450  0.75310800  1
  Li+  Li2  4  0.11367900  0.31748700  0.25242200  1
  Li+  Li3  4  0.24354750  0.05485450  0.50342800  1
  Li+  Li4  4  0.27330250  0.41350950  0.00133500  1
  Li+  Li5  4  0.33288850  0.40716550  0.75151100  1
  Li+  Li6  4  0.36067550  0.06261550  0.25274200  1
  Li+  Li7  4  0.49382350  0.30660950  0.50278700  1
  Zn2+  Zn8  4  0.05704850  0.43768250  0.87857800  1
  Zn2+  Zn9  4  0.08248300  0.09147000  0.37913900  1
  Zn2+  Zn10  4  0.14340300  0.08915400  0.12919300  1
  Zn2+  Zn11  4  0.17371350  0.44428550  0.62725300  1
  Zn2+  Zn12  4  0.30455900  0.18413600  0.87866300  1
  Zn2+  Zn13  4  0.33511400  0.33939000  0.37776900  1
  Zn2+  Zn14  4  0.39260900  0.16188200  0.62742100  1
  Zn2+  Zn15  4  0.42425350  0.30875350  0.12810600  1
  P5+  P16  4  0.01833550  0.43673150  0.68920400  1
  P5+  P17  4  0.14729700  0.18607900  0.94178200  1
  P5+  P18  4  0.17640100  0.34171500  0.43982700  1
  P5+  P19  4  0.23990400  0.15803200  0.69085900  1
  P5+  P20  4  0.26980550  0.31337750  0.18892600  1
  P5+  P21  4  0.39886850  0.06407350  0.44128100  1
  P5+  P22  4  0.42447700  0.40704200  0.93982100  1
  P5+  P23  4  0.49187700  0.40652800  0.69093500  1
  O2-  O24  4  0.00725300  0.15374200  0.45074100  1
  O2-  O25  4  0.02998250  0.12290750  0.11290200  1
  O2-  O26  4  0.04119000  0.34962800  0.76838400  1
  O2-  O27  4  0.04648400  0.15510900  0.26534700  1
  O2-  O28  4  0.08223800  0.28468000  0.95795300  1
  O2-  O29  4  0.08646800  0.47113500  0.17341800  1
  O2-  O30  4  0.11880550  0.09527350  0.86545700  1
  O2-  O31  4  0.12487000  0.40497600  0.36329200  1
  O2-  O32  4  0.13687750  0.37703150  0.51585400  1
  O2-  O33  4  0.15783000  0.09474200  0.67883700  1
  O2-  O34  4  0.16931900  0.09050600  0.01688500  1
  O2-  O35  4  0.17995000  0.18620100  0.42711400  1
  O2-  O36  4  0.19963550  0.22593950  0.20426900  1
  O2-  O37  4  0.21828450  0.27024450  0.92516000  1
  O2-  O38  4  0.23367950  0.31334850  0.70303200  1
  O2-  O39  4  0.24765400  0.40835700  0.11333300  1
  O2-  O40  4  0.25996150  0.39904350  0.45153300  1
  O2-  O41  4  0.27971600  0.12379800  0.61465100  1
  O2-  O42  4  0.29234700  0.09933500  0.76807200  1
  O2-  O43  4  0.29471750  0.40515050  0.26548400  1
  O2-  O44  4  0.33288550  0.03250850  0.95760000  1
  O2-  O45  4  0.33757650  0.22025350  0.17345400  1
  O2-  O46  4  0.37073900  0.34416300  0.86489300  1
  O2-  O47  4  0.37257150  0.15271750  0.36335000  1
  O2-  O48  4  0.38614950  0.37556450  0.01716700  1
  O2-  O49  4  0.41003700  0.34218300  0.67957300  1
  O2-  O50  4  0.41931400  0.16168400  0.51566100  1
  O2-  O51  4  0.43061850  0.43806650  0.42614100  1
  O2-  O52  4  0.44758150  0.02438550  0.70203800  1
  O2-  O53  4  0.46999850  0.02130450  0.92649500  1
  O2-  O54  4  0.48394600  0.43892600  0.20502800  1
  O2-  O55  4  0.49882450  0.16186850  0.11503500  1
