# generated using pymatgen
data_Pb2WO5
_symmetry_space_group_name_H-M   C2/m
_cell_length_a   14.42078000
_cell_length_b   5.96195400
_cell_length_c   7.54236815
_cell_angle_alpha   90.00000000
_cell_angle_beta   111.76427582
_cell_angle_gamma   90.00000000
_symmetry_Int_Tables_number   12
_chemical_formula_structural   Pb2WO5
_chemical_formula_sum   'Pb8 W4 O20'
_cell_volume   602.23859771
_cell_formula_units_Z   4
loop_
 _symmetry_equiv_pos_site_id
 _symmetry_equiv_pos_as_xyz
  1  'x, y, z'
  2  '-x, -y, -z'
  3  '-x, y, -z'
  4  'x, -y, z'
  5  'x+1/2, y+1/2, z'
  6  '-x+1/2, -y+1/2, -z'
  7  '-x+1/2, y+1/2, -z'
  8  'x+1/2, -y+1/2, z'
loop_
 _atom_type_symbol
 _atom_type_oxidation_number
  Pb2+  2.0
  W6+  6.0
  O2-  -2.0
loop_
 _atom_site_type_symbol
 _atom_site_label
 _atom_site_symmetry_multiplicity
 _atom_site_fract_x
 _atom_site_fract_y
 _atom_site_fract_z
 _atom_site_occupancy
  Pb2+  Pb0  4  0.00617000  0.50000000  0.24513400  1
  Pb2+  Pb1  4  0.13417700  0.00000000  0.11196400  1
  W6+  W2  4  0.17311400  0.00000000  0.66120000  1
  O2-  O3  8  0.14762100  0.24288800  0.78065500  1
  O2-  O4  4  0.00000000  0.25267200  0.00000000  1
  O2-  O5  4  0.09562900  0.00000000  0.40558400  1
  O2-  O6  4  0.19517000  0.50000000  0.30361700  1
