# generated using pymatgen
data_Sr2MgGe2O7
_symmetry_space_group_name_H-M   P-42_1m
_cell_length_a   8.26416500
_cell_length_b   8.26416500
_cell_length_c   5.37278800
_cell_angle_alpha   90.00000000
_cell_angle_beta   90.00000000
_cell_angle_gamma   90.00000000
_symmetry_Int_Tables_number   113
_chemical_formula_structural   Sr2MgGe2O7
_chemical_formula_sum   'Sr4 Mg2 Ge4 O14'
_cell_volume   366.94220273
_cell_formula_units_Z   2
loop_
 _symmetry_equiv_pos_site_id
 _symmetry_equiv_pos_as_xyz
  1  'x, y, z'
  2  'y, -x, -z'
  3  '-x, -y, z'
  4  '-y, x, -z'
  5  'x+1/2, -y+1/2, -z'
  6  'y+1/2, x+1/2, z'
  7  '-x+1/2, y+1/2, -z'
  8  '-y+1/2, -x+1/2, z'
loop_
 _atom_type_symbol
 _atom_type_oxidation_number
  Sr2+  2.0
  Mg2+  2.0
  Ge4+  4.0
  O2-  -2.0
loop_
 _atom_site_type_symbol
 _atom_site_label
 _atom_site_symmetry_multiplicity
 _atom_site_fract_x
 _atom_site_fract_y
 _atom_site_fract_z
 _atom_site_occupancy
  Sr2+  Sr0  4  0.16513200  0.66513200  0.49186500  1
  Mg2+  Mg1  2  0.00000000  0.00000000  0.00000000  1
  Ge4+  Ge2  4  0.14326300  0.35673700  0.94953700  1
  O2-  O3  8  0.08236100  0.17799600  0.79332800  1
  O2-  O4  4  0.13892900  0.36107100  0.27380900  1
  O2-  O5  2  0.00000000  0.50000000  0.81567200  1
