# generated using pymatgen
data_Sr2MgSi2O7
_symmetry_space_group_name_H-M   P-42_1m
_cell_length_a   8.09718000
_cell_length_b   8.09718000
_cell_length_c   5.22654000
_cell_angle_alpha   90.00000000
_cell_angle_beta   90.00000000
_cell_angle_gamma   90.00000000
_symmetry_Int_Tables_number   113
_chemical_formula_structural   Sr2MgSi2O7
_chemical_formula_sum   'Sr4 Mg2 Si4 O14'
_cell_volume   342.67456171
_cell_formula_units_Z   2
loop_
 _symmetry_equiv_pos_site_id
 _symmetry_equiv_pos_as_xyz
  1  'x, y, z'
  2  'y, -x, -z'
  3  '-x, -y, z'
  4  '-y, x, -z'
  5  'x+1/2, -y+1/2, -z'
  6  'y+1/2, x+1/2, z'
  7  '-x+1/2, y+1/2, -z'
  8  '-y+1/2, -x+1/2, z'
loop_
 _atom_type_symbol
 _atom_type_oxidation_number
  Sr2+  2.0
  Mg2+  2.0
  Si4+  4.0
  O2-  -2.0
loop_
 _atom_site_type_symbol
 _atom_site_label
 _atom_site_symmetry_multiplicity
 _atom_site_fract_x
 _atom_site_fract_y
 _atom_site_fract_z
 _atom_site_occupancy
  Sr2+  Sr0  4  0.16614400  0.66614400  0.50787900  1
  Mg2+  Mg1  2  0.00000000  0.00000000  0.00000000  1
  Si4+  Si2  4  0.13869800  0.36130200  0.05647700  1
  O2-  O3  8  0.07955000  0.18990400  0.19850400  1
  O2-  O4  4  0.14002900  0.35997100  0.74646400  1
  O2-  O5  2  0.00000000  0.50000000  0.16477200  1
