# generated using pymatgen
data_SrLiBO3
_symmetry_space_group_name_H-M   P2_1/c
_cell_length_a   6.45917767
_cell_length_b   6.70980203
_cell_length_c   7.66417606
_cell_angle_alpha   90.00000000
_cell_angle_beta   122.40322947
_cell_angle_gamma   90.00000000
_symmetry_Int_Tables_number   14
_chemical_formula_structural   SrLiBO3
_chemical_formula_sum   'Sr4 Li4 B4 O12'
_cell_volume   280.44521046
_cell_formula_units_Z   4
loop_
 _symmetry_equiv_pos_site_id
 _symmetry_equiv_pos_as_xyz
  1  'x, y, z'
  2  '-x, -y, -z'
  3  '-x, y+1/2, -z+1/2'
  4  'x, -y+1/2, z+1/2'
loop_
 _atom_type_symbol
 _atom_type_oxidation_number
  Sr2+  2.0
  Li+  1.0
  B3+  3.0
  O2-  -2.0
loop_
 _atom_site_type_symbol
 _atom_site_label
 _atom_site_symmetry_multiplicity
 _atom_site_fract_x
 _atom_site_fract_y
 _atom_site_fract_z
 _atom_site_occupancy
  Sr2+  Sr0  4  0.33400981  0.62456683  0.63584745  1
  Li+  Li1  4  0.09257305  0.09122149  0.69639248  1
  B3+  B2  4  0.23528340  0.13566171  0.42538857  1
  O2-  O3  4  0.05713227  0.11335448  0.21638494  1
  O2-  O4  4  0.25725311  0.50974461  0.06169952  1
  O2-  O5  4  0.38384799  0.19861214  0.99181522  1
